test/data/dist/ShortCircuitCases/ieee123_Power_elem_kVA.txt

CIRCUIT ELEMENT POWER FLOW

(Power Flow into element from indicated Bus)

Power Delivery Elements

  Bus     Phase     kW     +j   kvar         kVA         PF

ELEMENT = "Vsource.SOURCE"
SOURCEBUS     1     -3565.8 +j -11544.6    12082.7       0.2951
SOURCEBUS     2     -3086.7 +j -11215.9    11632.9       0.2653
SOURCEBUS     3     -3782.4 +j -11009.9    11641.4       0.3249
   TERMINAL TOTAL .-10434.9 +j -33770.3    35345.7       0.2952
SOURCEBUS     0         0.0 +j      0.0        0.0       1.0000
SOURCEBUS     0         0.0 +j      0.0        0.0       1.0000
SOURCEBUS     0         0.0 +j      0.0        0.0       1.0000
   TERMINAL TOTAL .     0.0 +j      0.0        0.0       1.0000

ELEMENT = "Transformer.SUB"
SOURCEBUS     1      3565.8 +j  11544.6    12082.7       0.2951
SOURCEBUS     2      3086.7 +j  11215.9    11632.9       0.2653
SOURCEBUS     3      3782.4 +j  11009.9    11641.4       0.3249
SOURCEBUS     0         0.0 +j      0.0        0.0       1.0000
   TERMINAL TOTAL . 10434.9 +j  33770.3    35345.7       0.2952
150           1     -3459.8 +j  -7030.8     7836.0       0.4415
150           2     -2744.3 +j  -7274.4     7774.8       0.3530
150           3     -3090.6 +j  -7085.5     7730.3       0.3998
150           0         0.0 +j      0.0        0.0       1.0000
   TERMINAL TOTAL . -9294.7 +j -21390.8    23322.9       0.3985

ELEMENT = "Transformer.REG1A"
150           1      3459.8 +j   7030.8     7836.0       0.4415
150           2      2744.3 +j   7274.4     7774.8       0.3530
150           3      3090.6 +j   7085.5     7730.3       0.3998
150           0         0.0 +j      0.0        0.0       1.0000
   TERMINAL TOTAL .  9294.7 +j  21390.8    23322.9       0.3985
150R          1     -3459.8 +j  -7029.7     7835.0       0.4416
150R          2     -2744.3 +j  -7273.3     7773.8       0.3530
150R          3     -3090.6 +j  -7084.5     7729.3       0.3999
150R          0         0.0 +j      0.0        0.0       1.0000
   TERMINAL TOTAL . -9294.7 +j -21387.5    23319.9       0.3986

ELEMENT = "Line.L115"
149           1      3459.8 +j   7029.7     7835.0       0.4416
149           2      2744.3 +j   7273.3     7773.8       0.3530
149           3      3090.6 +j   7084.5     7729.3       0.3999
   TERMINAL TOTAL .  9294.6 +j  21387.5    23319.9       0.3986
1             1     -2659.1 +j  -5784.8     6366.7       0.4177
1             2     -2233.1 +j  -6088.2     6484.8       0.3444
1             3     -2598.4 +j  -5843.3     6395.0       0.4063
   TERMINAL TOTAL . -7490.6 +j -17716.3    19234.8       0.3894

ELEMENT = "Line.L1"
1             2         0.0 +j     -0.0        0.0      -0.0000
   TERMINAL TOTAL .     0.0 +j     -0.0        0.0      -0.0000
2             2        -0.0 +j      0.0        0.0      -0.4224
   TERMINAL TOTAL .    -0.0 +j      0.0        0.0      -0.4224

ELEMENT = "Line.L2"
1             3         0.0 +j     -0.0        0.0      -0.0000
   TERMINAL TOTAL .     0.0 +j     -0.0        0.0      -0.0000
3             3        -0.0 +j      0.0        0.0      -0.0000
   TERMINAL TOTAL .    -0.0 +j      0.0        0.0      -0.0000

ELEMENT = "Line.L3"
1             1      2659.1 +j   5784.8     6366.7       0.4177
1             2      2233.1 +j   6088.2     6484.8       0.3444
1             3      2598.4 +j   5843.3     6395.0       0.4063
   TERMINAL TOTAL .  7490.6 +j  17716.3    19234.8       0.3894
7             1     -2058.6 +j  -4851.1     5269.8       0.3906
7             2     -1849.7 +j  -5199.4     5518.6       0.3352
7             3     -2229.3 +j  -4912.4     5394.6       0.4133
   TERMINAL TOTAL . -6137.7 +j -14962.9    16172.8       0.3795

ELEMENT = "Line.L4"
3             3        -0.0 +j     -0.0        0.0       0.0000
   TERMINAL TOTAL .    -0.0 +j     -0.0        0.0       0.0000
4             3         0.0 +j      0.0        0.0       0.7863
   TERMINAL TOTAL .     0.0 +j      0.0        0.0       0.7863

ELEMENT = "Line.L5"
3             3         0.0 +j     -0.0        0.0      -0.0000
   TERMINAL TOTAL .     0.0 +j     -0.0        0.0      -0.0000
5             3        -0.0 +j      0.0        0.0      -0.0000
   TERMINAL TOTAL .    -0.0 +j      0.0        0.0      -0.0000

ELEMENT = "Line.L6"
5             3        -0.0 +j     -0.0        0.0       0.0000
   TERMINAL TOTAL .    -0.0 +j     -0.0        0.0       0.0000
6             3         0.0 +j     -0.0        0.0      -0.3375
   TERMINAL TOTAL .     0.0 +j     -0.0        0.0      -0.3375

ELEMENT = "Line.L7"
7             1      2058.6 +j   4851.1     5269.8       0.3906
7             2      1849.7 +j   5199.4     5518.6       0.3352
7             3      2229.3 +j   4912.4     5394.6       0.4133
   TERMINAL TOTAL .  6137.7 +j  14962.9    16172.8       0.3795
8             1     -1658.3 +j  -4228.7     4542.2       0.3651
8             2     -1594.2 +j  -4606.8     4874.9       0.3270
8             3     -1983.3 +j  -4291.8     4727.9       0.4195
   TERMINAL TOTAL . -5235.7 +j -13127.3    14132.9       0.3705

ELEMENT = "Line.L8"
8             2         0.0 +j     -0.0        0.0      -0.0000
   TERMINAL TOTAL .     0.0 +j     -0.0        0.0      -0.0000
12            2        -0.0 +j      0.0        0.0      -0.4390
   TERMINAL TOTAL .    -0.0 +j      0.0        0.0      -0.4390

ELEMENT = "Line.L9"
8             1         0.0 +j     -0.0        0.0      -0.0000
   TERMINAL TOTAL .     0.0 +j     -0.0        0.0      -0.0000
9             1        -0.0 +j      0.0        0.0      -0.0000
   TERMINAL TOTAL .    -0.0 +j      0.0        0.0      -0.0000

ELEMENT = "Line.L10"
8             1      1744.0 +j   4231.5     4576.8       0.3811
8             2      1685.5 +j   4608.4     4907.0       0.3435
8             3      2076.0 +j   4287.4     4763.6       0.4358
   TERMINAL TOTAL .  5505.6 +j  13127.3    14235.1       0.3868
13            1     -1134.6 +j  -3283.2     3473.7       0.3266
13            2     -1297.2 +j  -3708.1     3928.5       0.3302
13            3     -1701.1 +j  -3342.3     3750.3       0.4536
   TERMINAL TOTAL . -4132.9 +j -10333.6    11129.4       0.3713

ELEMENT = "Line.L11"
9R            1         0.0 +j     -0.0        0.0      -0.0000
   TERMINAL TOTAL .     0.0 +j     -0.0        0.0      -0.0000
14            1         0.0 +j      0.0        0.0       0.0000
   TERMINAL TOTAL .     0.0 +j      0.0        0.0       0.0000

ELEMENT = "Line.L12"
13            3         0.0 +j     -0.0        0.0      -0.0000
   TERMINAL TOTAL .     0.0 +j     -0.0        0.0      -0.0000
34            3        -0.0 +j      0.0        0.0      -0.0000
   TERMINAL TOTAL .    -0.0 +j      0.0        0.0      -0.0000

ELEMENT = "Line.L13"
13            1      1263.5 +j   2899.2     3162.6       0.3995
13            2      1342.9 +j   3196.7     3467.3       0.3873
13            3      1796.2 +j   2768.2     3299.9       0.5443
   TERMINAL TOTAL .  4402.6 +j   8864.2     9897.3       0.4448
18            1      -404.8 +j   -887.6      975.5       0.4149
18            2      -417.5 +j   -990.8     1075.2       0.3883
18            3      -582.0 +j   -871.0     1047.6       0.5556
   TERMINAL TOTAL . -1404.3 +j  -2749.4     3087.2       0.4549

ELEMENT = "Line.L14"
14            1        -0.0 +j     -0.0        0.0       0.0000
   TERMINAL TOTAL .    -0.0 +j     -0.0        0.0       0.0000
11            1         0.0 +j     -0.0        0.0      -0.8378
   TERMINAL TOTAL .     0.0 +j     -0.0        0.0      -0.8378

ELEMENT = "Line.L15"
14            1        -0.0 +j     -0.0        0.0       0.0000
   TERMINAL TOTAL .    -0.0 +j     -0.0        0.0       0.0000
10            1         0.0 +j     -0.0        0.0      -0.8378
   TERMINAL TOTAL .     0.0 +j     -0.0        0.0      -0.8378

ELEMENT = "Line.L16"
15            3         0.0 +j     -0.0        0.0      -0.0000
   TERMINAL TOTAL .     0.0 +j     -0.0        0.0      -0.0000
16            3         0.0 +j      0.0        0.0       1.0000
   TERMINAL TOTAL .     0.0 +j      0.0        0.0       1.0000

ELEMENT = "Line.L17"
15            3         0.0 +j     -0.0        0.0      -0.0000
   TERMINAL TOTAL .     0.0 +j     -0.0        0.0      -0.0000
17            3        -0.0 +j      0.0        0.0      -0.9882
   TERMINAL TOTAL .    -0.0 +j      0.0        0.0      -0.9882

ELEMENT = "Line.L18"
18            1         0.0 +j     -0.0        0.0      -0.0000
   TERMINAL TOTAL .     0.0 +j     -0.0        0.0      -0.0000
19            1        -0.0 +j      0.0        0.0      -0.0000
   TERMINAL TOTAL .    -0.0 +j      0.0        0.0      -0.0000

ELEMENT = "Line.L19"
18            1       556.4 +j    977.0     1124.3       0.4949
18            2       613.3 +j   1105.4     1264.1       0.4852
18            3       764.9 +j    983.1     1245.7       0.6141
   TERMINAL TOTAL .  1934.6 +j   3065.5     3624.9       0.5337
21            1      -150.5 +j     -0.8      150.5       1.0000
21            2      -149.0 +j     -0.9      149.0       1.0000
21            3      -138.3 +j     -0.8      138.3       1.0000
   TERMINAL TOTAL .  -437.8 +j     -2.4      437.8       1.0000

ELEMENT = "Line.L20"
19            1         0.0 +j     -0.0        0.0      -0.0000
   TERMINAL TOTAL .     0.0 +j     -0.0        0.0      -0.0000
20            1        -0.0 +j      0.0        0.0      -0.8597
   TERMINAL TOTAL .    -0.0 +j      0.0        0.0      -0.8597

ELEMENT = "Line.L21"
21            2         0.0 +j     -0.0        0.0      -0.0000
   TERMINAL TOTAL .     0.0 +j     -0.0        0.0      -0.0000
22            2         0.0 +j     -0.0        0.0      -0.8306
   TERMINAL TOTAL .     0.0 +j     -0.0        0.0      -0.8306

ELEMENT = "Line.L22"
21            1        -2.6 +j      0.8        2.7      -0.9580
21            2        -2.5 +j      0.9        2.7      -0.9413
21            3        -2.5 +j      0.8        2.6      -0.9549
   TERMINAL TOTAL .    -7.6 +j      2.4        7.9      -0.9516
23            1         2.7 +j     -0.5        2.7      -0.9824
23            2         2.6 +j     -0.6        2.7      -0.9746
23            3         2.6 +j     -0.5        2.7      -0.9837
   TERMINAL TOTAL .     8.0 +j     -1.6        8.1      -0.9805

ELEMENT = "Line.L23"
23            3         0.0 +j     -0.0        0.0      -0.0000
   TERMINAL TOTAL .     0.0 +j     -0.0        0.0      -0.0000
24            3         0.0 +j     -0.0        0.0      -0.5814
   TERMINAL TOTAL .     0.0 +j     -0.0        0.0      -0.5814

ELEMENT = "Line.L24"
23            1        -2.7 +j      0.5        2.7      -0.9824
23            2        -2.6 +j      0.6        2.7      -0.9746
23            3        -2.6 +j      0.5        2.7      -0.9837
   TERMINAL TOTAL .    -8.0 +j      1.6        8.1      -0.9805
25            1         2.8 +j     -0.2        2.8      -0.9969
25            2         2.8 +j     -0.3        2.8      -0.9950
25            3         2.8 +j     -0.2        2.8      -0.9982
   TERMINAL TOTAL .     8.4 +j     -0.7        8.4      -0.9968

ELEMENT = "Line.L25"
25R           1         0.0 +j     -0.0        0.0      -0.0981
25R           3        -0.0 +j     -0.0        0.0       0.0935
   TERMINAL TOTAL .     0.0 +j     -0.0        0.0      -0.0000
26            1        -0.0 +j      0.0        0.0      -0.0657
26            3         0.0 +j      0.0        0.0       0.0621
   TERMINAL TOTAL .    -0.0 +j      0.0        0.0      -0.0000

ELEMENT = "Line.L26"
25            1        -2.8 +j      0.2        2.8      -0.9969
25            2        -2.8 +j      0.3        2.8      -0.9950
25            3        -2.8 +j      0.2        2.8      -0.9982
   TERMINAL TOTAL .    -8.4 +j      0.7        8.4      -0.9968
28            1         2.9 +j     -0.0        2.9      -1.0000
28            2         2.9 +j     -0.0        2.9      -0.9999
28            3         3.0 +j      0.1        3.0       0.9998
   TERMINAL TOTAL .     8.7 +j     -0.0        8.7      -1.0000

ELEMENT = "Line.L27"
26            1         0.0 +j     -0.0        0.0      -0.0657
26            3        -0.0 +j     -0.0        0.0       0.1544
   TERMINAL TOTAL .     0.0 +j     -0.0        0.0      -0.0000
27            1        -0.0 +j      0.0        0.0      -0.0000
27            3         0.0 +j     -0.0        0.0      -0.6748
   TERMINAL TOTAL .    -0.0 +j      0.0        0.0      -0.0000

ELEMENT = "Line.L28"
26            3         0.0 +j     -0.0        0.0      -0.0000
   TERMINAL TOTAL .     0.0 +j     -0.0        0.0      -0.0000
31            3        -0.0 +j      0.0        0.0      -0.0000
   TERMINAL TOTAL .    -0.0 +j      0.0        0.0      -0.0000

ELEMENT = "Line.L29"
27            1         0.0 +j     -0.0        0.0      -0.0000
   TERMINAL TOTAL .     0.0 +j     -0.0        0.0      -0.0000
33            1         0.0 +j      0.0        0.0       1.0000
   TERMINAL TOTAL .     0.0 +j      0.0        0.0       1.0000

ELEMENT = "Line.L30"
28            1         0.0 +j     -0.0        0.0      -0.0819
28            2         0.0 +j     -0.0        0.0      -0.0581
28            3        -0.0 +j     -0.0        0.0       0.1322
   TERMINAL TOTAL .     0.0 +j     -0.0        0.0      -0.0000
29            1        -0.0 +j      0.0        0.0      -0.0819
29            2        -0.0 +j      0.0        0.0      -0.0581
29            3         0.0 +j      0.0        0.0       0.1322
   TERMINAL TOTAL .    -0.0 +j      0.0        0.0      -0.0000

ELEMENT = "Line.L31"
29            1         0.0 +j     -0.0        0.0      -0.0819
29            2         0.0 +j     -0.0        0.0      -0.0581
29            3        -0.0 +j     -0.0        0.0       0.1322
   TERMINAL TOTAL .     0.0 +j     -0.0        0.0      -0.0000
30            1        -0.0 +j      0.0        0.0      -0.0819
30            2        -0.0 +j      0.0        0.0      -0.0581
30            3         0.0 +j      0.0        0.0       0.1322
   TERMINAL TOTAL .    -0.0 +j      0.0        0.0      -0.0000

ELEMENT = "Line.L32"
30            1         0.0 +j     -0.0        0.0      -0.0819
30            2         0.0 +j     -0.0        0.0      -0.0581
30            3        -0.0 +j     -0.0        0.0       0.1322
   TERMINAL TOTAL .     0.0 +j     -0.0        0.0      -0.0000
250           1        -0.0 +j     -0.0        0.0       0.9631
250           2         0.0 +j      0.0        0.0       0.9795
250           3        -0.0 +j      0.0        0.0      -0.4249
   TERMINAL TOTAL .    -0.0 +j      0.0        0.0      -0.5496

ELEMENT = "Line.L33"
31            3         0.0 +j     -0.0        0.0      -0.0000
   TERMINAL TOTAL .     0.0 +j     -0.0        0.0      -0.0000
32            3        -0.0 +j     -0.0        0.0       0.7380
   TERMINAL TOTAL .    -0.0 +j     -0.0        0.0       0.7380

ELEMENT = "Line.L34"
34            3         0.0 +j     -0.0        0.0      -0.0000
   TERMINAL TOTAL .     0.0 +j     -0.0        0.0      -0.0000
15            3        -0.0 +j      0.0        0.0      -0.0000
   TERMINAL TOTAL .    -0.0 +j      0.0        0.0      -0.0000

ELEMENT = "Line.L35"
35            1        -0.0 +j     -0.0        0.0       0.1248
35            2         0.0 +j     -0.0        0.0      -0.0806
   TERMINAL TOTAL .     0.0 +j     -0.0        0.0      -0.0000
36            1        -0.0 +j      0.0        0.0      -0.0000
36            2        -0.0 +j      0.0        0.0      -0.0000
   TERMINAL TOTAL .    -0.0 +j      0.0        0.0      -0.0000

ELEMENT = "Line.L36"
35            1      -136.4 +j   -112.9      177.1       0.7702
35            2      -182.6 +j   -143.1      232.1       0.7871
35            3      -160.4 +j   -142.4      214.5       0.7478
   TERMINAL TOTAL .  -479.4 +j   -398.5      623.4       0.7690
40            1       146.8 +j    129.1      195.5       0.7510
40            2       191.1 +j    163.0      251.2       0.7608
40            3       169.0 +j    162.0      234.1       0.7218
   TERMINAL TOTAL .   506.9 +j    454.1      680.6       0.7448

ELEMENT = "Line.L37"
36            1         0.0 +j     -0.0        0.0      -0.0000
   TERMINAL TOTAL .     0.0 +j     -0.0        0.0      -0.0000
37            1         0.0 +j      0.0        0.0       1.0000
   TERMINAL TOTAL .     0.0 +j      0.0        0.0       1.0000

ELEMENT = "Line.L38"
36            2         0.0 +j     -0.0        0.0      -0.0000
   TERMINAL TOTAL .     0.0 +j     -0.0        0.0      -0.0000
38            2        -0.0 +j      0.0        0.0      -0.0000
   TERMINAL TOTAL .    -0.0 +j      0.0        0.0      -0.0000

ELEMENT = "Line.L39"
38            2         0.0 +j     -0.0        0.0      -0.0000
   TERMINAL TOTAL .     0.0 +j     -0.0        0.0      -0.0000
39            2        -0.0 +j     -0.0        0.0       0.8648
   TERMINAL TOTAL .    -0.0 +j     -0.0        0.0       0.8648

ELEMENT = "Line.L40"
40            3         0.0 +j     -0.0        0.0      -0.0000
   TERMINAL TOTAL .     0.0 +j     -0.0        0.0      -0.0000
41            3        -0.0 +j     -0.0        0.0       0.7445
   TERMINAL TOTAL .    -0.0 +j     -0.0        0.0       0.7445

ELEMENT = "Line.L41"
40            1      -146.8 +j   -129.1      195.5       0.7510
40            2      -191.1 +j   -163.0      251.2       0.7608
40            3      -169.0 +j   -162.0      234.1       0.7218
   TERMINAL TOTAL .  -506.9 +j   -454.1      680.6       0.7448
42            1       157.2 +j    145.2      214.0       0.7347
42            2       199.6 +j    182.9      270.7       0.7373
42            3       177.6 +j    181.6      254.0       0.6990
   TERMINAL TOTAL .   534.4 +j    509.7      738.5       0.7236

ELEMENT = "Line.L42"
42            2         0.0 +j     -0.0        0.0      -0.0000
   TERMINAL TOTAL .     0.0 +j     -0.0        0.0      -0.0000
43            2        -0.0 +j     -0.0        0.0       0.1812
   TERMINAL TOTAL .    -0.0 +j     -0.0        0.0       0.1812

ELEMENT = "Line.L43"
42            1      -157.2 +j   -145.2      214.0       0.7347
42            2      -199.6 +j   -182.9      270.7       0.7373
42            3      -177.6 +j   -181.6      254.0       0.6990
   TERMINAL TOTAL .  -534.4 +j   -509.7      738.5       0.7236
44            1       165.6 +j    158.1      228.9       0.7233
44            2       206.3 +j    198.7      286.5       0.7202
44            3       184.4 +j    197.3      270.1       0.6828
   TERMINAL TOTAL .   556.3 +j    554.2      785.3       0.7085

ELEMENT = "Line.L44"
44            1         0.0 +j     -0.0        0.0      -0.0000
   TERMINAL TOTAL .     0.0 +j     -0.0        0.0      -0.0000
45            1         0.0 +j      0.0        0.0       0.0000
   TERMINAL TOTAL .     0.0 +j      0.0        0.0       0.0000

ELEMENT = "Line.L45"
44            1      -165.6 +j   -158.1      228.9       0.7233
44            2      -206.3 +j   -198.7      286.5       0.7202
44            3      -184.4 +j   -197.3      270.1       0.6828
   TERMINAL TOTAL .  -556.3 +j   -554.2      785.3       0.7085
47            1       176.0 +j    174.2      247.7       0.7107
47            2       214.8 +j    218.6      306.5       0.7008
47            3       193.0 +j    217.0      290.4       0.6647
   TERMINAL TOTAL .   583.8 +j    609.8      844.2       0.6916

ELEMENT = "Line.L46"
45            1        -0.0 +j     -0.0        0.0       0.0000
   TERMINAL TOTAL .    -0.0 +j     -0.0        0.0       0.0000
46            1         0.0 +j      0.0        0.0       0.9228
   TERMINAL TOTAL .     0.0 +j      0.0        0.0       0.9228

ELEMENT = "Line.L47"
47            1       -65.6 +j     -2.7       65.7       0.9992
47            2       -69.6 +j     -1.5       69.6       0.9998
47            3       -70.9 +j      6.1       71.2      -0.9963
   TERMINAL TOTAL .  -206.2 +j      2.0      206.2      -1.0000
48            1        66.0 +j      3.4       66.1       0.9987
48            2        70.0 +j      2.1       70.1       0.9996
48            3        71.1 +j     -5.5       71.4      -0.9971
   TERMINAL TOTAL .   207.2 +j     -0.0      207.2      -1.0000

ELEMENT = "Line.L48"
47            1      -110.4 +j   -171.6      204.0       0.5411
47            2      -145.1 +j   -217.1      261.2       0.5557
47            3      -122.1 +j   -223.1      254.3       0.4801
   TERMINAL TOTAL .  -377.6 +j   -611.8      719.0       0.5253
49            1       116.1 +j    183.1      216.8       0.5356
49            2       154.2 +j    231.2      277.9       0.5548
49            3       127.3 +j    237.2      269.2       0.4728
   TERMINAL TOTAL .   397.6 +j    651.5      763.3       0.5209

ELEMENT = "Line.L49"
49            1      -116.1 +j   -183.1      216.8       0.5356
49            2      -154.2 +j   -231.2      277.9       0.5548
49            3      -127.3 +j   -237.2      269.2       0.4728
   TERMINAL TOTAL .  -397.6 +j   -651.5      763.3       0.5209
50            1       121.9 +j    194.6      229.6       0.5307
50            2       163.2 +j    245.3      294.6       0.5540
50            3       132.5 +j    251.4      284.2       0.4662
   TERMINAL TOTAL .   417.5 +j    691.3      807.6       0.5170

ELEMENT = "Line.L50"
50            1      -121.9 +j   -194.6      229.6       0.5307
50            2      -163.2 +j   -245.3      294.6       0.5540
50            3      -132.5 +j   -251.4      284.2       0.4662
   TERMINAL TOTAL .  -417.5 +j   -691.3      807.6       0.5170
51            1       127.6 +j    206.2      242.4       0.5262
51            2       172.2 +j    259.3      311.3       0.5533
51            3       137.7 +j    265.6      299.1       0.4603
   TERMINAL TOTAL .   437.5 +j    731.0      851.9       0.5135

ELEMENT = "Line.L51"
51            1      -127.6 +j   -206.2      242.4       0.5262
51            2      -172.2 +j   -259.3      311.3       0.5533
51            3      -137.7 +j   -265.6      299.1       0.4603
   TERMINAL TOTAL .  -437.5 +j   -731.0      851.9       0.5135
151           1       139.0 +j    229.2      268.1       0.5186
151           2       190.3 +j    287.4      344.7       0.5521
151           3       148.1 +j    293.9      329.1       0.4500
   TERMINAL TOTAL .   477.4 +j    810.5      940.7       0.5075

ELEMENT = "Line.L52"
52            1      -140.2 +j    366.2      392.1      -0.3575
52            2       -54.6 +j    490.9      494.0      -0.1105
52            3      -108.0 +j    543.4      554.0      -0.1950
   TERMINAL TOTAL .  -302.8 +j   1400.5     1432.9      -0.2113
53            1       145.8 +j   -357.3      385.9      -0.3778
53            2        59.1 +j   -480.7      484.3      -0.1220
53            3       114.5 +j   -528.1      540.3      -0.2119
   TERMINAL TOTAL .   319.4 +j  -1366.1     1402.9      -0.2277

ELEMENT = "Line.L53"
53            1      -145.8 +j    357.3      385.9      -0.3778
53            2       -59.1 +j    480.7      484.3      -0.1220
53            3      -114.5 +j    528.1      540.3      -0.2119
   TERMINAL TOTAL .  -319.4 +j   1366.1     1402.9      -0.2277
54            1       149.3 +j   -351.8      382.1      -0.3907
54            2        61.9 +j   -474.3      478.3      -0.1294
54            3       118.6 +j   -518.5      531.9      -0.2229
   TERMINAL TOTAL .   329.7 +j  -1344.5     1384.4      -0.2382

ELEMENT = "Line.L54"
54            1        -0.0 +j     -0.0        0.0       0.1311
54            2         0.0 +j     -0.0        0.0      -0.0530
54            3         0.0 +j     -0.0        0.0      -0.0596
   TERMINAL TOTAL .     0.0 +j     -0.0        0.0      -0.0000
55            1         0.0 +j      0.0        0.0       0.1311
55            2        -0.0 +j      0.0        0.0      -0.0530
55            3        -0.0 +j      0.0        0.0      -0.0596
   TERMINAL TOTAL .     0.0 +j      0.0        0.0       0.0000

ELEMENT = "Line.L55"
54            1      -149.3 +j    351.8      382.1      -0.3907
54            2       -61.9 +j    474.3      478.3      -0.1294
54            3      -118.6 +j    518.5      531.9      -0.2229
   TERMINAL TOTAL .  -329.7 +j   1344.6     1384.4      -0.2382
57            1       155.1 +j   -335.8      369.9      -0.4194
57            2        74.6 +j   -456.2      462.2      -0.1614
57            3       129.0 +j   -494.9      511.4      -0.2522
   TERMINAL TOTAL .   358.7 +j  -1286.9     1335.9      -0.2685

ELEMENT = "Line.L56"
55            1        -0.0 +j     -0.0        0.0       0.1311
55            2         0.0 +j     -0.0        0.0      -0.0530
55            3         0.0 +j     -0.0        0.0      -0.0596
   TERMINAL TOTAL .     0.0 +j     -0.0        0.0      -0.0000
56            1         0.0 +j      0.0        0.0       0.8572
56            2         0.0 +j     -0.0        0.0      -0.0694
56            3        -0.0 +j      0.0        0.0      -0.9957
   TERMINAL TOTAL .    -0.0 +j     -0.0        0.0       0.4309

ELEMENT = "Line.L57"
57            2         0.0 +j     -0.0        0.0      -0.0000
   TERMINAL TOTAL .     0.0 +j     -0.0        0.0      -0.0000
58            2        -0.0 +j      0.0        0.0      -0.0000
   TERMINAL TOTAL .    -0.0 +j      0.0        0.0      -0.0000

ELEMENT = "Line.L58"
57            1      -155.1 +j    335.8      369.9      -0.4194
57            2       -74.6 +j    456.2      462.2      -0.1614
57            3      -129.0 +j    494.9      511.4      -0.2522
   TERMINAL TOTAL .  -358.7 +j   1286.9     1335.9      -0.2685
60            1       167.6 +j   -301.7      345.1      -0.4857
60            2       101.9 +j   -417.3      429.5      -0.2371
60            3       151.4 +j   -444.2      469.3      -0.3225
   TERMINAL TOTAL .   420.9 +j  -1163.2     1237.0      -0.3402

ELEMENT = "Line.L59"
58            2         0.0 +j     -0.0        0.0      -0.0000
   TERMINAL TOTAL .     0.0 +j     -0.0        0.0      -0.0000
59            2        -0.0 +j      0.0        0.0      -0.5156
   TERMINAL TOTAL .    -0.0 +j      0.0        0.0      -0.5156

ELEMENT = "Line.L60"
60            1       -55.3 +j     -4.5       55.5       0.9967
60            2       -61.2 +j      0.7       61.2      -0.9999
60            3       -58.7 +j      5.7       59.0      -0.9954
   TERMINAL TOTAL .  -175.2 +j      1.9      175.2      -0.9999
61            1        55.7 +j      5.1       55.9       0.9959
61            2        61.4 +j     -0.1       61.4      -1.0000
61            3        59.0 +j     -5.0       59.3      -0.9964
   TERMINAL TOTAL .   176.1 +j     -0.0      176.1      -1.0000

ELEMENT = "Line.L61"
60            1         0.0 +j     -0.0        0.0      -0.0000
60            2         0.0 +j     -0.0        0.0      -0.0000
60            3         0.0 +j     -0.0        0.0      -0.0000
   TERMINAL TOTAL .     0.0 +j     -0.0        0.0      -0.0000
62            1        -0.0 +j      0.0        0.0      -0.0000
62            2        -0.0 +j      0.0        0.0      -0.0000
62            3        -0.0 +j      0.0        0.0      -0.0000
   TERMINAL TOTAL .    -0.0 +j      0.0        0.0      -0.0000

ELEMENT = "Line.L62"
62            1         0.0 +j     -0.0        0.0      -0.0000
62            2         0.0 +j     -0.0        0.0      -0.0000
62            3         0.0 +j     -0.0        0.0      -0.0000
   TERMINAL TOTAL .     0.0 +j     -0.0        0.0      -0.0000
63            1        -0.0 +j      0.0        0.0      -0.0000
63            2        -0.0 +j      0.0        0.0      -0.0000
63            3        -0.0 +j      0.0        0.0      -0.0000
   TERMINAL TOTAL .    -0.0 +j      0.0        0.0      -0.0000

ELEMENT = "Line.L63"
63            1         0.0 +j     -0.0        0.0      -0.0000
63            2         0.0 +j     -0.0        0.0      -0.0000
63            3         0.0 +j     -0.0        0.0      -0.0000
   TERMINAL TOTAL .     0.0 +j     -0.0        0.0      -0.0000
64            1        -0.0 +j      0.0        0.0      -0.0000
64            2        -0.0 +j      0.0        0.0      -0.0000
64            3        -0.0 +j      0.0        0.0      -0.0000
   TERMINAL TOTAL .    -0.0 +j      0.0        0.0      -0.0000

ELEMENT = "Line.L64"
64            1         0.0 +j     -0.0        0.0      -0.0000
64            2         0.0 +j     -0.0        0.0      -0.0000
64            3         0.0 +j     -0.0        0.0      -0.0000
   TERMINAL TOTAL .     0.0 +j     -0.0        0.0      -0.0000
65            1        -0.0 +j      0.0        0.0      -0.0000
65            2        -0.0 +j      0.0        0.0      -0.0000
65            3        -0.0 +j      0.0        0.0      -0.0000
   TERMINAL TOTAL .    -0.0 +j      0.0        0.0      -0.0000

ELEMENT = "Line.L65"
65            1         0.0 +j     -0.0        0.0      -0.0000
65            2         0.0 +j     -0.0        0.0      -0.0000
65            3         0.0 +j     -0.0        0.0      -0.0000
   TERMINAL TOTAL .     0.0 +j     -0.0        0.0      -0.0000
66            1        -0.0 +j     -0.0        0.0       0.9792
66            2         0.0 +j      0.0        0.0       0.4690
66            3         0.0 +j      0.0        0.0       0.9999
   TERMINAL TOTAL .    -0.0 +j      0.0        0.0      -0.2762

ELEMENT = "Line.L66"
67            1         0.0 +j     -0.0        0.0      -0.0000
   TERMINAL TOTAL .     0.0 +j     -0.0        0.0      -0.0000
68            1        -0.0 +j      0.0        0.0      -0.0000
   TERMINAL TOTAL .    -0.0 +j      0.0        0.0      -0.0000

ELEMENT = "Line.L67"
67            1      -178.2 +j    -17.4      179.1       0.9953
67            2      -195.0 +j     -3.8      195.1       0.9998
67            3      -186.2 +j     11.2      186.5      -0.9982
   TERMINAL TOTAL .  -559.4 +j    -10.1      559.5       0.9998
72            1       179.5 +j     20.4      180.6       0.9936
72            2       196.8 +j      6.6      196.9       0.9994
72            3       187.2 +j     -8.6      187.4      -0.9989
   TERMINAL TOTAL .   563.5 +j     18.4      563.8       0.9995

ELEMENT = "Line.L68"
67            1        63.3 +j    312.3      318.7       0.1985
67            2       146.1 +j    405.1      430.6       0.3392
67            3        82.4 +j    408.9      417.1       0.1975
   TERMINAL TOTAL .   291.7 +j   1126.3     1163.5       0.2507
97            1       -60.2 +j   -303.5      309.4       0.1944
97            2      -138.5 +j   -393.5      417.2       0.3320
97            3       -77.0 +j   -397.3      404.7       0.1903
   TERMINAL TOTAL .  -275.7 +j  -1094.3     1128.5       0.2443

ELEMENT = "Line.L69"
68            1         0.0 +j     -0.0        0.0      -0.0000
   TERMINAL TOTAL .     0.0 +j     -0.0        0.0      -0.0000
69            1        -0.0 +j      0.0        0.0      -0.0000
   TERMINAL TOTAL .    -0.0 +j      0.0        0.0      -0.0000

ELEMENT = "Line.L70"
69            1         0.0 +j     -0.0        0.0      -0.0000
   TERMINAL TOTAL .     0.0 +j     -0.0        0.0      -0.0000
70            1        -0.0 +j      0.0        0.0      -0.0000
   TERMINAL TOTAL .    -0.0 +j      0.0        0.0      -0.0000

ELEMENT = "Line.L71"
70            1         0.0 +j     -0.0        0.0      -0.0000
   TERMINAL TOTAL .     0.0 +j     -0.0        0.0      -0.0000
71            1         0.0 +j      0.0        0.0       1.0000
   TERMINAL TOTAL .     0.0 +j      0.0        0.0       1.0000

ELEMENT = "Line.L72"
72            3         0.0 +j     -0.0        0.0      -0.0000
   TERMINAL TOTAL .     0.0 +j     -0.0        0.0      -0.0000
73            3        -0.0 +j      0.0        0.0      -0.0000
   TERMINAL TOTAL .    -0.0 +j      0.0        0.0      -0.0000

ELEMENT = "Line.L73"
72            1      -179.5 +j    -20.4      180.6       0.9936
72            2      -196.8 +j     -6.6      196.9       0.9994
72            3      -187.2 +j      8.6      187.4      -0.9989
   TERMINAL TOTAL .  -563.5 +j    -18.4      563.8       0.9995
76            1       180.4 +j     22.6      181.8       0.9922
76            2       198.1 +j      8.7      198.3       0.9990
76            3       188.0 +j     -6.8      188.1      -0.9994
   TERMINAL TOTAL .   566.5 +j     24.5      567.0       0.9991

ELEMENT = "Line.L74"
73            3         0.0 +j     -0.0        0.0      -0.0000
   TERMINAL TOTAL .     0.0 +j     -0.0        0.0      -0.0000
74            3        -0.0 +j      0.0        0.0      -0.0000
   TERMINAL TOTAL .    -0.0 +j      0.0        0.0      -0.0000

ELEMENT = "Line.L75"
74            3         0.0 +j     -0.0        0.0      -0.0000
   TERMINAL TOTAL .     0.0 +j     -0.0        0.0      -0.0000
75            3        -0.0 +j     -0.0        0.0       0.8668
   TERMINAL TOTAL .    -0.0 +j     -0.0        0.0       0.8668

ELEMENT = "Line.L76"
76            1       -60.0 +j    -17.9       62.7       0.9581
76            2       -66.2 +j    -15.2       67.9       0.9747
76            3       -63.0 +j     -9.1       63.6       0.9897
   TERMINAL TOTAL .  -189.2 +j    -42.2      193.8       0.9760
77            1        60.2 +j     18.4       63.0       0.9561
77            2        66.4 +j     15.7       68.2       0.9732
77            3        63.3 +j      9.5       64.0       0.9889
   TERMINAL TOTAL .   189.9 +j     43.6      194.8       0.9746

ELEMENT = "Line.L77"
76            1      -120.3 +j     -4.6      120.4       0.9993
76            2      -131.9 +j      6.5      132.1      -0.9988
76            3      -125.0 +j     15.9      126.0      -0.9920
   TERMINAL TOTAL .  -377.3 +j     17.7      377.7      -0.9989
86            1       121.7 +j      8.0      122.0       0.9979
86            2       134.0 +j     -3.4      134.0      -0.9997
86            3       126.2 +j    -13.0      126.9      -0.9948
   TERMINAL TOTAL .   381.9 +j     -8.3      382.0      -0.9998

ELEMENT = "Line.L78"
77            1       -60.2 +j    -18.4       63.0       0.9561
77            2       -66.4 +j    -15.7       68.2       0.9732
77            3       -63.3 +j     -9.5       64.0       0.9889
   TERMINAL TOTAL .  -189.9 +j    -43.6      194.8       0.9746
78            1        60.2 +j     18.6       63.0       0.9556
78            2        66.5 +j     15.8       68.3       0.9729
78            3        63.3 +j      9.6       64.1       0.9887
   TERMINAL TOTAL .   190.0 +j     44.0      195.0       0.9742

ELEMENT = "Line.L79"
78            1       -60.2 +j     -5.1       60.5       0.9965
78            2       -66.5 +j      0.5       66.5      -1.0000
78            3       -63.4 +j      5.3       63.6      -0.9965
   TERMINAL TOTAL .  -190.1 +j      0.8      190.1      -1.0000
79            1        60.3 +j      5.3       60.6       0.9961
79            2        66.7 +j     -0.3       66.7      -1.0000
79            3        63.5 +j     -5.1       63.7      -0.9968
   TERMINAL TOTAL .   190.5 +j     -0.0      190.5      -1.0000

ELEMENT = "Line.L80"
78            1         0.0 +j    -13.5       13.5      -0.0012
78            2         0.0 +j    -16.3       16.3      -0.0026
78            3         0.0 +j    -14.9       14.9      -0.0031
   TERMINAL TOTAL .     0.1 +j    -44.8       44.8      -0.0023
80            1        -0.0 +j     13.5       13.5      -0.0007
80            2        -0.0 +j     16.4       16.4      -0.0015
80            3        -0.0 +j     15.0       15.0      -0.0018
   TERMINAL TOTAL .    -0.1 +j     44.8       44.8      -0.0014

ELEMENT = "Line.L81"
80            1         0.0 +j    -13.5       13.5      -0.0007
80            2         0.0 +j    -16.4       16.4      -0.0015
80            3         0.0 +j    -15.0       15.0      -0.0018
   TERMINAL TOTAL .     0.1 +j    -44.8       44.8      -0.0014
81            1        -0.0 +j     13.5       13.5      -0.0005
81            2        -0.0 +j     16.4       16.4      -0.0011
81            3        -0.0 +j     15.0       15.0      -0.0013
   TERMINAL TOTAL .    -0.0 +j     44.9       44.9      -0.0010

ELEMENT = "Line.L82"
81            1         0.0 +j    -13.5       13.5      -0.0005
81            2         0.0 +j    -16.4       16.4      -0.0011
81            3         0.0 +j    -15.0       15.0      -0.0013
   TERMINAL TOTAL .     0.0 +j    -44.9       44.9      -0.0010
82            1        -0.0 +j     13.5       13.5      -0.0003
82            2        -0.0 +j     16.4       16.4      -0.0006
82            3        -0.0 +j     15.0       15.0      -0.0007
   TERMINAL TOTAL .    -0.0 +j     44.9       44.9      -0.0005

ELEMENT = "Line.L83"
81            3         0.0 +j     -0.0        0.0      -0.0000
   TERMINAL TOTAL .     0.0 +j     -0.0        0.0      -0.0000
84            3        -0.0 +j      0.0        0.0      -0.0000
   TERMINAL TOTAL .    -0.0 +j      0.0        0.0      -0.0000

ELEMENT = "Line.L84"
82            1         0.0 +j    -13.5       13.5      -0.0003
82            2         0.0 +j    -16.4       16.4      -0.0006
82            3         0.0 +j    -15.0       15.0      -0.0007
   TERMINAL TOTAL .     0.0 +j    -44.9       44.9      -0.0005
83            1        -0.0 +j     13.6       13.6      -0.0000
83            2         0.0 +j     16.4       16.4       0.0000
83            3        -0.0 +j     15.0       15.0      -0.0000
   TERMINAL TOTAL .    -0.0 +j     45.0       45.0      -0.0000

ELEMENT = "Line.L85"
84            3         0.0 +j     -0.0        0.0      -0.0000
   TERMINAL TOTAL .     0.0 +j     -0.0        0.0      -0.0000
85            3        -0.0 +j     -0.0        0.0       0.6529
   TERMINAL TOTAL .    -0.0 +j     -0.0        0.0       0.6529

ELEMENT = "Line.L86"
86            1      -121.7 +j     -8.0      122.0       0.9979
86            2      -134.0 +j      3.4      134.0      -0.9997
86            3      -126.2 +j     13.0      126.9      -0.9948
   TERMINAL TOTAL .  -381.9 +j      8.3      382.0      -0.9998
87            1       122.4 +j     10.1      122.8       0.9966
87            2       135.0 +j     -1.2      135.0      -1.0000
87            3       127.4 +j    -11.1      127.9      -0.9962
   TERMINAL TOTAL .   384.8 +j     -2.3      384.8      -1.0000

ELEMENT = "Line.L87"
87            1         0.0 +j     -3.4        3.4      -0.0004
   TERMINAL TOTAL .     0.0 +j     -3.4        3.4      -0.0004
88            1         0.0 +j      3.4        3.4       0.0000
   TERMINAL TOTAL .     0.0 +j      3.4        3.4       0.0000

ELEMENT = "Line.L88"
87            1      -122.4 +j     -6.6      122.5       0.9985
87            2      -135.0 +j      1.2      135.0      -1.0000
87            3      -127.4 +j     11.1      127.9      -0.9962
   TERMINAL TOTAL .  -384.8 +j      5.7      384.9      -0.9999
89            1       122.7 +j      7.9      123.0       0.9980
89            2       135.7 +j      0.0      135.7       1.0000
89            3       128.2 +j     -9.9      128.6      -0.9970
   TERMINAL TOTAL .   386.6 +j     -2.0      386.6      -1.0000

ELEMENT = "Line.L89"
89            2         0.0 +j     -4.2        4.2      -0.0005
   TERMINAL TOTAL .     0.0 +j     -4.2        4.2      -0.0005
90            2         0.0 +j      4.2        4.2       0.0000
   TERMINAL TOTAL .     0.0 +j      4.2        4.2       0.0000

ELEMENT = "Line.L90"
89            1      -122.7 +j     -7.9      123.0       0.9980
89            2      -135.7 +j      4.2      135.8      -0.9995
89            3      -128.2 +j      9.9      128.6      -0.9970
   TERMINAL TOTAL .  -386.6 +j      6.3      386.7      -0.9999
91            1       123.1 +j      8.9      123.4       0.9974
91            2       136.2 +j     -3.2      136.3      -0.9997
91            3       128.8 +j     -9.0      129.1      -0.9976
   TERMINAL TOTAL .   388.1 +j     -3.2      388.1      -1.0000

ELEMENT = "Line.L91"
91            3         0.0 +j     -3.9        3.9      -0.0007
   TERMINAL TOTAL .     0.0 +j     -3.9        3.9      -0.0007
92            3        -0.0 +j      3.9        3.9      -0.0000
   TERMINAL TOTAL .    -0.0 +j      3.9        3.9      -0.0000

ELEMENT = "Line.L92"
91            1      -123.1 +j     -8.9      123.4       0.9974
91            2      -136.2 +j      3.2      136.3      -0.9997
91            3      -128.8 +j     12.8      129.5      -0.9951
   TERMINAL TOTAL .  -388.1 +j      7.1      388.2      -0.9998
93            1       123.4 +j      9.9      123.8       0.9968
93            2       136.8 +j     -2.1      136.8      -0.9999
93            3       129.4 +j    -11.9      130.0      -0.9958
   TERMINAL TOTAL .   389.6 +j     -4.1      389.6      -0.9999

ELEMENT = "Line.L93"
93            1         0.0 +j     -0.0        0.0      -0.0000
   TERMINAL TOTAL .     0.0 +j     -0.0        0.0      -0.0000
94            1         0.0 +j      0.0        0.0       1.0000
   TERMINAL TOTAL .     0.0 +j      0.0        0.0       1.0000

ELEMENT = "Line.L94"
93            1      -123.4 +j     -9.9      123.8       0.9968
93            2      -136.8 +j      2.1      136.8      -0.9999
93            3      -129.4 +j     11.9      130.0      -0.9958
   TERMINAL TOTAL .  -389.6 +j      4.1      389.6      -0.9999
95            1       123.8 +j     11.3      124.3       0.9959
95            2       137.5 +j     -0.7      137.5      -1.0000
95            3       130.2 +j    -10.6      130.7      -0.9967
   TERMINAL TOTAL .   391.6 +j     -0.0      391.6      -1.0000

ELEMENT = "Line.L95"
95            2        -0.0 +j     -0.0        0.0       0.0000
   TERMINAL TOTAL .    -0.0 +j     -0.0        0.0       0.0000
96            2         0.0 +j      0.0        0.0       1.0000
   TERMINAL TOTAL .     0.0 +j      0.0        0.0       1.0000

ELEMENT = "Line.L96"
97            1       -57.4 +j     -3.6       57.5       0.9981
97            2       -63.0 +j      1.4       63.0      -0.9997
97            3       -60.5 +j      5.9       60.8      -0.9952
   TERMINAL TOTAL .  -180.8 +j      3.8      180.9      -0.9998
98            1        57.5 +j      3.9       57.6       0.9977
98            2        63.2 +j     -1.1       63.2      -0.9998
98            3        60.6 +j     -5.6       60.9      -0.9957
   TERMINAL TOTAL .   181.3 +j     -2.9      181.3      -0.9999

ELEMENT = "Line.L97"
98            1       -57.5 +j     -3.9       57.6       0.9977
98            2       -63.2 +j      1.1       63.2      -0.9998
98            3       -60.6 +j      5.6       60.9      -0.9957
   TERMINAL TOTAL .  -181.3 +j      2.9      181.3      -0.9999
99            1        57.8 +j      4.5       58.0       0.9969
99            2        63.6 +j     -0.5       63.6      -1.0000
99            3        60.8 +j     -5.1       61.0      -0.9965
   TERMINAL TOTAL .   182.2 +j     -1.0      182.2      -1.0000

ELEMENT = "Line.L98"
99            1       -57.8 +j     -4.5       58.0       0.9969
99            2       -63.6 +j      0.5       63.6      -1.0000
99            3       -60.8 +j      5.1       61.0      -0.9965
   TERMINAL TOTAL .  -182.2 +j      1.0      182.2      -1.0000
100           1        57.9 +j      4.9       58.1       0.9964
100           2        63.8 +j     -0.1       63.8      -1.0000
100           3        61.0 +j     -4.8       61.1      -0.9970
   TERMINAL TOTAL .   182.7 +j     -0.0      182.7      -1.0000

ELEMENT = "Line.L99"
100           1         0.0 +j     -0.0        0.0      -0.0823
100           2        -0.0 +j     -0.0        0.0       0.1309
100           3         0.0 +j     -0.0        0.0      -0.0726
   TERMINAL TOTAL .     0.0 +j     -0.0        0.0      -0.0000
450           1         0.0 +j      0.0        0.0       0.1241
450           2         0.0 +j      0.0        0.0       0.7832
450           3         0.0 +j      0.0        0.0       0.8601
   TERMINAL TOTAL .     0.0 +j      0.0        0.0       0.6712

ELEMENT = "Line.L118"
197           1       117.5 +j    307.0      328.8       0.3575
197           2       201.4 +j    392.1      440.8       0.4570
197           3       137.5 +j    391.4      414.9       0.3314
   TERMINAL TOTAL .   456.5 +j   1090.5     1182.2       0.3861
101           1      -113.9 +j   -297.0      318.1       0.3582
101           2      -193.1 +j   -379.0      425.4       0.4539
101           3      -131.9 +j   -379.3      401.6       0.3284
   TERMINAL TOTAL .  -438.9 +j  -1055.4     1143.0       0.3840

ELEMENT = "Line.L100"
101           3         0.0 +j     -0.0        0.0      -0.0000
   TERMINAL TOTAL .     0.0 +j     -0.0        0.0      -0.0000
102           3        -0.0 +j      0.0        0.0      -0.0000
   TERMINAL TOTAL .    -0.0 +j      0.0        0.0      -0.0000

ELEMENT = "Line.L101"
101           1       113.9 +j    297.0      318.1       0.3582
101           2       193.1 +j    379.0      425.4       0.4539
101           3       131.9 +j    379.3      401.6       0.3284
   TERMINAL TOTAL .   438.9 +j   1055.4     1143.0       0.3840
105           1      -110.0 +j   -286.0      306.4       0.3590
105           2      -183.9 +j   -364.7      408.4       0.4502
105           3      -125.7 +j   -366.1      387.0       0.3248
   TERMINAL TOTAL .  -419.6 +j  -1016.7     1099.9       0.3815

ELEMENT = "Line.L102"
102           3         0.0 +j     -0.0        0.0      -0.0000
   TERMINAL TOTAL .     0.0 +j     -0.0        0.0      -0.0000
103           3        -0.0 +j      0.0        0.0      -0.0000
   TERMINAL TOTAL .    -0.0 +j      0.0        0.0      -0.0000

ELEMENT = "Line.L103"
103           3         0.0 +j     -0.0        0.0      -0.0000
   TERMINAL TOTAL .     0.0 +j     -0.0        0.0      -0.0000
104           3        -0.0 +j     -0.0        0.0       0.8684
   TERMINAL TOTAL .    -0.0 +j     -0.0        0.0       0.8684

ELEMENT = "Line.L104"
105           2         0.0 +j     -0.0        0.0      -0.0000
   TERMINAL TOTAL .     0.0 +j     -0.0        0.0      -0.0000
106           2        -0.0 +j      0.0        0.0      -0.0000
   TERMINAL TOTAL .    -0.0 +j      0.0        0.0      -0.0000

ELEMENT = "Line.L105"
105           1       110.0 +j    286.0      306.4       0.3590
105           2       183.9 +j    364.7      408.4       0.4502
105           3       125.7 +j    366.1      387.0       0.3248
   TERMINAL TOTAL .   419.6 +j   1016.7     1099.9       0.3815
108           1      -105.3 +j   -273.0      292.6       0.3600
108           2      -173.0 +j   -347.7      388.4       0.4455
108           3      -118.4 +j   -350.4      369.8       0.3202
   TERMINAL TOTAL .  -396.8 +j   -971.0     1048.9       0.3782

ELEMENT = "Line.L106"
106           2         0.0 +j     -0.0        0.0      -0.0000
   TERMINAL TOTAL .     0.0 +j     -0.0        0.0      -0.0000
107           2         0.0 +j      0.0        0.0       0.4338
   TERMINAL TOTAL .     0.0 +j      0.0        0.0       0.4338

ELEMENT = "Line.L107"
108           1         0.0 +j     -0.0        0.0      -0.0000
   TERMINAL TOTAL .     0.0 +j     -0.0        0.0      -0.0000
109           1        -0.0 +j      0.0        0.0      -0.0000
   TERMINAL TOTAL .    -0.0 +j      0.0        0.0      -0.0000

ELEMENT = "Line.L108"
108           1       156.4 +j    276.7      317.8       0.4920
108           2       228.5 +j    347.9      416.2       0.5490
108           3       172.4 +j    346.4      387.0       0.4456
   TERMINAL TOTAL .   557.3 +j    971.0     1119.6       0.4978
300           1      -139.0 +j   -229.2      268.1       0.5186
300           2      -190.3 +j   -287.4      344.7       0.5521
300           3      -148.1 +j   -293.9      329.1       0.4500
   TERMINAL TOTAL .  -477.4 +j   -810.5      940.7       0.5075

ELEMENT = "Line.L109"
109           1         0.0 +j     -0.0        0.0      -0.0000
   TERMINAL TOTAL .     0.0 +j     -0.0        0.0      -0.0000
110           1        -0.0 +j      0.0        0.0      -0.0000
   TERMINAL TOTAL .    -0.0 +j      0.0        0.0      -0.0000

ELEMENT = "Line.L110"
110           1         0.0 +j     -0.0        0.0      -0.0000
   TERMINAL TOTAL .     0.0 +j     -0.0        0.0      -0.0000
111           1         0.0 +j      0.0        0.0       1.0000
   TERMINAL TOTAL .     0.0 +j      0.0        0.0       1.0000

ELEMENT = "Line.L111"
110           1         0.0 +j     -0.0        0.0      -0.0000
   TERMINAL TOTAL .     0.0 +j     -0.0        0.0      -0.0000
112           1        -0.0 +j      0.0        0.0      -0.0000
   TERMINAL TOTAL .    -0.0 +j      0.0        0.0      -0.0000

ELEMENT = "Line.L112"
112           1         0.0 +j     -0.0        0.0      -0.0000
   TERMINAL TOTAL .     0.0 +j     -0.0        0.0      -0.0000
113           1        -0.0 +j      0.0        0.0      -0.0000
   TERMINAL TOTAL .    -0.0 +j      0.0        0.0      -0.0000

ELEMENT = "Line.L113"
113           1         0.0 +j     -0.0        0.0      -0.0000
   TERMINAL TOTAL .     0.0 +j     -0.0        0.0      -0.0000
114           1        -0.0 +j     -0.0        0.0       0.5308
   TERMINAL TOTAL .    -0.0 +j     -0.0        0.0       0.5308

ELEMENT = "Line.L114"
135           1      -123.6 +j    -87.5      151.4       0.8162
135           2      -164.1 +j   -113.7      199.6       0.8218
135           3      -150.6 +j   -114.9      189.4       0.7951
   TERMINAL TOTAL .  -438.2 +j   -316.1      540.3       0.8110
35            1       136.4 +j    112.9      177.1       0.7702
35            2       182.6 +j    143.1      232.1       0.7871
35            3       160.4 +j    142.4      214.5       0.7478
   TERMINAL TOTAL .   479.4 +j    398.5      623.4       0.7690

ELEMENT = "Line.L116"
152           1      -129.0 +j    384.0      405.1      -0.3184
152           2       -45.6 +j    511.4      513.4      -0.0889
152           3       -95.1 +j    574.0      581.9      -0.1634
   TERMINAL TOTAL .  -269.7 +j   1469.4     1494.0      -0.1805
52            1       140.2 +j   -366.2      392.1      -0.3575
52            2        54.6 +j   -490.9      494.0      -0.1105
52            3       108.0 +j   -543.4      554.0      -0.1950
   TERMINAL TOTAL .   302.8 +j  -1400.5     1432.9      -0.2113

ELEMENT = "Line.L117"
160R          1      -112.4 +j    306.1      326.1      -0.3446
160R          2       -40.7 +j    416.5      418.5      -0.0972
160R          3       -92.7 +j    438.4      448.1      -0.2068
   TERMINAL TOTAL .  -245.7 +j   1161.0     1186.7      -0.2070
67            1       115.0 +j   -294.9      316.5      -0.3632
67            2        49.0 +j   -401.3      404.2      -0.1212
67            3       103.8 +j   -420.1      432.7      -0.2398
   TERMINAL TOTAL .   267.7 +j  -1116.2     1147.9      -0.2332

ELEMENT = "Line.SW1"
150R          1      3459.8 +j   7029.7     7835.0       0.4416
150R          2      2744.3 +j   7273.3     7773.8       0.3530
150R          3      3090.6 +j   7084.5     7729.3       0.3999
   TERMINAL TOTAL .  9294.7 +j  21387.5    23319.9       0.3986
149           1     -3459.8 +j  -7029.7     7835.0       0.4416
149           2     -2744.3 +j  -7273.3     7773.8       0.3530
149           3     -3090.6 +j  -7084.5     7729.3       0.3999
   TERMINAL TOTAL . -9294.6 +j -21387.5    23319.9       0.3986

ELEMENT = "Line.SW2"
13            1      -129.0 +j    384.0      405.1      -0.3184
13            2       -45.6 +j    511.4      513.4      -0.0889
13            3       -95.1 +j    574.0      581.9      -0.1634
   TERMINAL TOTAL .  -269.7 +j   1469.4     1494.0      -0.1805
152           1       129.0 +j   -384.0      405.1      -0.3184
152           2        45.6 +j   -511.4      513.4      -0.0889
152           3        95.1 +j   -574.0      581.9      -0.1634
   TERMINAL TOTAL .   269.7 +j  -1469.4     1494.0      -0.1805

ELEMENT = "Line.SW3"
18            1      -123.6 +j    -87.5      151.4       0.8162
18            2      -164.1 +j   -113.7      199.6       0.8218
18            3      -150.6 +j   -114.9      189.4       0.7951
   TERMINAL TOTAL .  -438.2 +j   -316.1      540.3       0.8110
135           1       123.6 +j     87.5      151.4       0.8162
135           2       164.1 +j    113.7      199.6       0.8218
135           3       150.6 +j    114.9      189.4       0.7951
   TERMINAL TOTAL .   438.2 +j    316.1      540.3       0.8110

ELEMENT = "Line.SW4"
60            1      -112.4 +j    306.2      326.2      -0.3445
60            2       -40.7 +j    416.6      418.6      -0.0971
60            3       -92.7 +j    438.6      448.3      -0.2067
   TERMINAL TOTAL .  -245.7 +j   1161.4     1187.1      -0.2070
160           1       112.4 +j   -306.2      326.2      -0.3445
160           2        40.7 +j   -416.6      418.6      -0.0971
160           3        92.7 +j   -438.6      448.3      -0.2067
   TERMINAL TOTAL .   245.7 +j  -1161.4     1187.1      -0.2070

ELEMENT = "Line.SW5"
97            1       117.5 +j    307.0      328.8       0.3575
97            2       201.4 +j    392.1      440.8       0.4570
97            3       137.5 +j    391.4      414.9       0.3314
   TERMINAL TOTAL .   456.5 +j   1090.5     1182.2       0.3861
197           1      -117.5 +j   -307.0      328.8       0.3575
197           2      -201.4 +j   -392.1      440.8       0.4570
197           3      -137.5 +j   -391.4      414.9       0.3314
   TERMINAL TOTAL .  -456.5 +j  -1090.5     1182.2       0.3861

ELEMENT = "Line.SW6"
61            1        -0.0 +j      0.0        0.0      -0.0376
61            2         0.0 +j      0.0        0.0       0.0304
61            3         0.0 +j      0.0        0.0       0.0466
   TERMINAL TOTAL .     0.0 +j      0.0        0.0       0.0153
61S           1         0.0 +j     -0.0        0.0      -0.0376
61S           2        -0.0 +j     -0.0        0.0       0.0304
61S           3        -0.0 +j     -0.0        0.0       0.0466
   TERMINAL TOTAL .    -0.0 +j     -0.0        0.0       0.0153

ELEMENT = "Line.SW7"
151           1      -139.0 +j   -229.2      268.1       0.5186
151           2      -190.3 +j   -287.4      344.7       0.5521
151           3      -148.1 +j   -293.9      329.1       0.4500
   TERMINAL TOTAL .  -477.4 +j   -810.5      940.7       0.5075
300           1       139.0 +j    229.2      268.1       0.5186
300           2       190.3 +j    287.4      344.7       0.5521
300           3       148.1 +j    293.9      329.1       0.4500
   TERMINAL TOTAL .   477.4 +j    810.5      940.7       0.5075

ELEMENT = "Transformer.XFM1"
61S           1        -0.0 +j      0.0        0.0      -0.0166
61S           2         0.0 +j      0.0        0.0       0.0081
61S           3         0.0 +j      0.0        0.0       0.0060
61S           0         0.0 +j      0.0        0.0       1.0000
   TERMINAL TOTAL .     0.0 +j      0.0        0.0       0.0000
610           1         0.0 +j      0.0        0.0       0.8595
610           2        -0.0 +j      0.0        0.0      -0.9605
610           3        -0.0 +j      0.0        0.0      -0.0342
610           0         0.0 +j      0.0        0.0       1.0000
   TERMINAL TOTAL .    -0.0 +j      0.0        0.0      -0.4608

ELEMENT = "Capacitor.C83"
83            1         0.0 +j    -13.6       13.6       1.0000
83            2         0.0 +j    -16.4       16.4       1.0000
83            3         0.0 +j    -15.0       15.0       1.0000
   TERMINAL TOTAL .     0.0 +j    -45.0       45.0       1.0000
C83_1         0         0.0 +j      0.0        0.0       1.0000
C83_1         0         0.0 +j      0.0        0.0       1.0000
C83_1         0         0.0 +j      0.0        0.0       1.0000
   TERMINAL TOTAL .     0.0 +j      0.0        0.0       1.0000

ELEMENT = "Capacitor.C88A"
88            1         0.0 +j     -3.4        3.4      -0.0000
   TERMINAL TOTAL .     0.0 +j     -3.4        3.4      -0.0000
C88A_1        0         0.0 +j      0.0        0.0       1.0000
   TERMINAL TOTAL .     0.0 +j      0.0        0.0       1.0000

ELEMENT = "Capacitor.C90B"
90            2         0.0 +j     -4.2        4.2       1.0000
   TERMINAL TOTAL .     0.0 +j     -4.2        4.2       1.0000
C90B_1        0         0.0 +j      0.0        0.0       1.0000
   TERMINAL TOTAL .     0.0 +j      0.0        0.0       1.0000

ELEMENT = "Capacitor.C92C"
92            3        -0.0 +j     -3.9        3.9       0.0000
   TERMINAL TOTAL .    -0.0 +j     -3.9        3.9       0.0000
C92C_1        0         0.0 +j      0.0        0.0       1.0000
   TERMINAL TOTAL .     0.0 +j      0.0        0.0       1.0000

ELEMENT = "Transformer.REG2A"
9             1        -0.0 +j     -0.0        0.0       0.0000
9             0         0.0 +j      0.0        0.0       1.0000
   TERMINAL TOTAL .    -0.0 +j     -0.0        0.0       0.0000
9R            1        -0.0 +j      0.0        0.0      -0.0000
9R            0         0.0 +j      0.0        0.0       1.0000
   TERMINAL TOTAL .    -0.0 +j      0.0        0.0      -0.0000

ELEMENT = "Transformer.REG3A"
25            1         0.0 +j     -0.0        0.0      -0.0980
25            0         0.0 +j      0.0        0.0       1.0000
   TERMINAL TOTAL .     0.0 +j     -0.0        0.0      -0.0980
25R           1        -0.0 +j      0.0        0.0      -0.0981
25R           0         0.0 +j      0.0        0.0       1.0000
   TERMINAL TOTAL .    -0.0 +j      0.0        0.0      -0.0981

ELEMENT = "Transformer.REG4A"
160           1      -112.4 +j    306.2      326.2      -0.3445
160           0         0.0 +j      0.0        0.0       1.0000
   TERMINAL TOTAL .  -112.4 +j    306.2      326.2      -0.3445
160R          1       112.4 +j   -306.1      326.1      -0.3446
160R          0         0.0 +j      0.0        0.0       1.0000
   TERMINAL TOTAL .   112.4 +j   -306.1      326.1      -0.3446

ELEMENT = "Transformer.REG3C"
25            3        -0.0 +j     -0.0        0.0       0.0935
25            0         0.0 +j      0.0        0.0       1.0000
   TERMINAL TOTAL .    -0.0 +j     -0.0        0.0       0.0935
25R           3         0.0 +j      0.0        0.0       0.0935
25R           0         0.0 +j      0.0        0.0       1.0000
   TERMINAL TOTAL .     0.0 +j      0.0        0.0       0.0935

ELEMENT = "Transformer.REG4B"
160           2       -40.7 +j    416.6      418.6      -0.0971
160           0         0.0 +j      0.0        0.0       1.0000
   TERMINAL TOTAL .   -40.7 +j    416.6      418.6      -0.0971
160R          2        40.7 +j   -416.5      418.5      -0.0972
160R          0         0.0 +j      0.0        0.0       1.0000
   TERMINAL TOTAL .    40.7 +j   -416.5      418.5      -0.0972

ELEMENT = "Transformer.REG4C"
160           3       -92.7 +j    438.6      448.3      -0.2067
160           0         0.0 +j      0.0        0.0       1.0000
   TERMINAL TOTAL .   -92.7 +j    438.6      448.3      -0.2067
160R          3        92.7 +j   -438.4      448.1      -0.2068
160R          0         0.0 +j      0.0        0.0       1.0000
   TERMINAL TOTAL .    92.7 +j   -438.4      448.1      -0.2068

= = = = = = = = = = = = = = = = = = =  = = = = = = = = = = =  = =

Power Conversion Elements

  Bus     Phase     kW   +j  kvar         kVA         PF

ELEMENT = "PVSystem.1"
8             1     -85.7 +j   -2.8       85.8       0.9995
8             2     -91.4 +j   -1.6       91.4       0.9998
8             3     -92.8 +j    4.4       92.9      -0.9989
8             0       0.0 +j    0.0        0.0       1.0000
  TERMINAL TOTAL  .  -269.9 +j      0.0      269.9      -1.0000

ELEMENT = "PVSystem.2"
18            1     -28.0 +j   -1.9       28.1       0.9976
18            2     -31.7 +j   -0.8       31.8       0.9997
18            3     -32.4 +j    2.8       32.5      -0.9964
18            0       0.0 +j    0.0        0.0       1.0000
  TERMINAL TOTAL  .   -92.2 +j      0.0       92.2      -1.0000

ELEMENT = "PVSystem.3"
28            1      -2.9 +j    0.0        2.9      -1.0000
28            2      -2.9 +j    0.0        2.9      -0.9999
28            3      -3.0 +j   -0.1        3.0       0.9998
28            0       0.0 +j    0.0        0.0       1.0000
...